Version 4
SHEET 1 880 680
WIRE 80 128 -32 128
WIRE 96 128 80 128
WIRE 160 128 96 128
WIRE -32 176 -32 128
WIRE 208 176 208 144
WIRE -32 192 -32 176
WIRE -80 256 -272 256
WIRE 208 272 208 256
WIRE 208 336 208 320
WIRE 96 416 96 128
WIRE 160 416 96 416
FLAG 208 48 Vdd
FLAG -128 48 Vdd
FLAG -128 128 0
FLAG -32 272 0
FLAG 80 48 Vdd
FLAG 208 432 0
FLAG -272 336 0
SYMBOL pmos 160 48 R0
SYMATTR InstName M1
SYMBOL voltage -128 32 R0
WINDOW 123 0 0 Left 2
WINDOW 39 0 0 Left 2
SYMATTR InstName V1
SYMATTR Value 3.3
SYMBOL voltage -272 240 R0
WINDOW 3 -131 60 Left 2
WINDOW 123 0 0 Left 2
WINDOW 39 0 0 Left 2
SYMATTR InstName V2
SYMATTR Value PULSE(0 3.3 0 10n 10n .5m 1m)
SYMBOL LED 192 256 R0
SYMATTR InstName D1
SYMATTR Value NSPW500BS
SYMBOL res 64 32 R0
SYMATTR InstName R1
SYMATTR Value 100k
SYMBOL nmos -80 176 R0
SYMATTR InstName M2
SYMBOL res 192 160 R0
SYMATTR InstName R2
SYMATTR Value 1kR
SYMBOL nmos 160 336 R0
SYMATTR InstName M3
TEXT 456 24 Left 2 !.tran 10m
